77999
  -OEChem-02052511303D

 44 46  0     1  0  0  0  0  0999 V2000
    4.8833   -0.9367   -0.8924 S   0  0  0  0  0  0  0  0  0  0  0  0
   -1.6127   -1.8494    0.7835 O   0  0  0  0  0  0  0  0  0  0  0  0
    5.5901    2.0875    1.3988 O   0  0  0  0  0  0  0  0  0  0  0  0
    7.3471   -0.7528   -1.7907 O   0  0  0  0  0  0  0  0  0  0  0  0
   -4.2451   -1.2333   -0.1084 N   0  0  3  0  0  0  0  0  0  0  0  0
    6.6501    0.7615   -0.1715 N   0  0  0  0  0  0  0  0  0  0  0  0
   -5.0350    0.4335   -1.6163 N   0  0  0  0  0  0  0  0  0  0  0  0
    4.3886    0.2426    0.4012 C   0  0  2  0  0  0  0  0  0  0  0  0
    3.1676    1.0362   -0.0286 C   0  0  0  0  0  0  0  0  0  0  0  0
    1.8905    0.2657    0.1881 C   0  0  0  0  0  0  0  0  0  0  0  0
    5.5841    1.1430    0.6166 C   0  0  0  0  0  0  0  0  0  0  0  0
   -3.9722   -1.7030    1.2299 C   0  0  0  0  0  0  0  0  0  0  0  0
    1.2222    0.3800    1.3983 C   0  0  0  0  0  0  0  0  0  0  0  0
    1.4036   -0.5461   -0.8258 C   0  0  0  0  0  0  0  0  0  0  0  0
   -2.5801   -1.2712    1.6586 C   0  0  0  0  0  0  0  0  0  0  0  0
   -0.4603   -1.1524    0.5871 C   0  0  0  0  0  0  0  0  0  0  0  0
    0.0400   -0.3329    1.5988 C   0  0  0  0  0  0  0  0  0  0  0  0
    0.2215   -1.2591   -0.6252 C   0  0  0  0  0  0  0  0  0  0  0  0
    6.5067   -0.2970   -1.0300 C   0  0  0  0  0  0  0  0  0  0  0  0
   -4.8083    0.0293   -0.3385 C   0  0  0  0  0  0  0  0  0  0  0  0
   -3.9073   -2.1018   -1.2369 C   0  0  0  0  0  0  0  0  0  0  0  0
   -5.1113    0.8166    0.7695 C   0  0  0  0  0  0  0  0  0  0  0  0
   -5.6707    2.0718    0.5575 C   0  0  0  0  0  0  0  0  0  0  0  0
   -5.5798    1.6594   -1.7833 C   0  0  0  0  0  0  0  0  0  0  0  0
   -5.9126    2.5087   -0.7403 C   0  0  0  0  0  0  0  0  0  0  0  0
    4.2222   -0.3090    1.3334 H   0  0  0  0  0  0  0  0  0  0  0  0
    3.2392    1.3712   -1.0728 H   0  0  0  0  0  0  0  0  0  0  0  0
    3.1009    1.9693    0.5482 H   0  0  0  0  0  0  0  0  0  0  0  0
   -3.9957   -2.8015    1.2258 H   0  0  0  0  0  0  0  0  0  0  0  0
   -4.7366   -1.4328    1.9651 H   0  0  0  0  0  0  0  0  0  0  0  0
    1.6085    1.0085    2.1957 H   0  0  0  0  0  0  0  0  0  0  0  0
    1.9140   -0.6281   -1.7807 H   0  0  0  0  0  0  0  0  0  0  0  0
   -2.3879   -1.6300    2.6763 H   0  0  0  0  0  0  0  0  0  0  0  0
   -2.5306   -0.1753    1.6524 H   0  0  0  0  0  0  0  0  0  0  0  0
   -0.4424   -0.2454    2.5678 H   0  0  0  0  0  0  0  0  0  0  0  0
   -0.1657   -1.8933   -1.4180 H   0  0  0  0  0  0  0  0  0  0  0  0
    7.5280    1.2686   -0.1244 H   0  0  0  0  0  0  0  0  0  0  0  0
   -3.1670   -1.6187   -1.8837 H   0  0  0  0  0  0  0  0  0  0  0  0
   -4.8020   -2.3262   -1.8276 H   0  0  0  0  0  0  0  0  0  0  0  0
   -3.4843   -3.0571   -0.9083 H   0  0  0  0  0  0  0  0  0  0  0  0
   -4.9289    0.5400    1.7997 H   0  0  0  0  0  0  0  0  0  0  0  0
   -5.9140    2.7112    1.4009 H   0  0  0  0  0  0  0  0  0  0  0  0
   -5.7480    1.9532   -2.8141 H   0  0  0  0  0  0  0  0  0  0  0  0
   -6.3468    3.4838   -0.9294 H   0  0  0  0  0  0  0  0  0  0  0  0
  1  8  1  0  0  0  0
  1 19  1  0  0  0  0
  2 15  1  0  0  0  0
  2 16  1  0  0  0  0
  3 11  2  0  0  0  0
  4 19  2  0  0  0  0
  5 12  1  0  0  0  0
  5 20  1  0  0  0  0
  5 21  1  0  0  0  0
  6 11  1  0  0  0  0
  6 19  1  0  0  0  0
  6 37  1  0  0  0  0
  7 20  1  0  0  0  0
  7 24  2  0  0  0  0
  8  9  1  0  0  0  0
  8 11  1  0  0  0  0
  8 26  1  0  0  0  0
  9 10  1  0  0  0  0
  9 27  1  0  0  0  0
  9 28  1  0  0  0  0
 10 13  2  0  0  0  0
 10 14  1  0  0  0  0
 12 15  1  0  0  0  0
 12 29  1  0  0  0  0
 12 30  1  0  0  0  0
 13 17  1  0  0  0  0
 13 31  1  0  0  0  0
 14 18  2  0  0  0  0
 14 32  1  0  0  0  0
 15 33  1  0  0  0  0
 15 34  1  0  0  0  0
 16 17  2  0  0  0  0
 16 18  1  0  0  0  0
 17 35  1  0  0  0  0
 18 36  1  0  0  0  0
 20 22  2  0  0  0  0
 21 38  1  0  0  0  0
 21 39  1  0  0  0  0
 21 40  1  0  0  0  0
 22 23  1  0  0  0  0
 22 41  1  0  0  0  0
 23 25  2  0  0  0  0
 23 42  1  0  0  0  0
 24 25  1  0  0  0  0
 24 43  1  0  0  0  0
 25 44  1  0  0  0  0
M  END
> <PUBCHEM_COMPOUND_CID>
77999

> <PUBCHEM_CONFORMER_RMSD>
1.2

> <PUBCHEM_CONFORMER_DIVERSEORDER>
17
541
223
537
16
532
534
291
463
432
195
508
77
78
147
218
364
425
67
527
505
23
178
475
516
165
148
73
32
81
114
101
294
167
43
122
95
477
333
9
246
264
262
200
362
242
12
536
169
436
116
345
26
236
293
184
480
424
6
403
127
351
530
525
240
120
546
272
107
28
211
380
13
71
47
30
267
85
355
5
139
337
205
36
233
542
63
325
19
538
38
239
14
370
533
153
69
268
15
24
334
510
68
152
35
27
40
456
320
61
117
118
395
386
154
31
500
70
402
87
417
22
42
483
247
157
51
292
305
1
3
100
186
41
295
4
21
18
144
245
149
2
8
431
76
34

> <PUBCHEM_MMFF94_PARTIAL_CHARGES>
34
1 -0.37
10 -0.14
11 0.57
12 0.37
13 -0.15
14 -0.15
15 0.28
16 0.08
17 -0.15
18 -0.15
19 0.77
2 -0.36
20 0.41
21 0.37
22 -0.15
23 -0.15
24 0.16
25 -0.15
3 -0.57
31 0.15
32 0.15
35 0.15
36 0.15
37 0.37
4 -0.57
41 0.15
42 0.15
43 0.15
44 0.15
5 -0.84
6 -0.49
7 -0.62
8 0.29
9 0.14

> <PUBCHEM_EFFECTIVE_ROTOR_COUNT>
7.6

> <PUBCHEM_PHARMACOPHORE_FEATURES>
8
1 2 acceptor
1 3 acceptor
1 5 cation
1 6 donor
1 7 acceptor
5 1 6 8 11 19 rings
6 10 13 14 16 17 18 rings
6 7 20 22 23 24 25 rings

> <PUBCHEM_HEAVY_ATOM_COUNT>
25

> <PUBCHEM_ATOM_DEF_STEREO_COUNT>
0

> <PUBCHEM_ATOM_UDEF_STEREO_COUNT>
1

> <PUBCHEM_BOND_DEF_STEREO_COUNT>
0

> <PUBCHEM_BOND_UDEF_STEREO_COUNT>
0

> <PUBCHEM_ISOTOPIC_ATOM_COUNT>
0

> <PUBCHEM_COMPONENT_COUNT>
1

> <PUBCHEM_CACTVS_TAUTO_COUNT>
3

> <PUBCHEM_CONFORMER_ID>
000130AF00000011

> <PUBCHEM_MMFF94_ENERGY>
78.3497

> <PUBCHEM_FEATURE_SELFOVERLAP>
40.597

> <PUBCHEM_SHAPE_FINGERPRINT>
10 15 14779267497141296807
10554248 39 17274833462911611260
10763959 59 18342177804127598288
10906281 52 16081380652574647066
11135926 11 17060349495865927735
11273773 118 16588021290541870415
11475781 23 18410287013360692592
11724838 91 12319445598957660578
13690498 29 17559662027380857783
13878862 14 17632003226936541160
14118638 360 17967809462268331987
14251752 14 18202281394663993422
14251764 18 15719396169648998603
14849402 71 14780131764699160926
14856354 85 16226055521727896427
14931854 50 18200016354094499261
14950920 106 13912618143220790869
15183329 4 18272369745859075738
15274700 147 16322302680878501340
15475509 8 17168434770695240894
15510800 12 10951464017872886133
17349148 13 14836131000040400834
17780758 139 7925916998095614415
18927931 339 13182744779624280507
20281389 69 18040432187749015689
20511986 3 17489015055252997262
20567600 75 18410580599844666518
21033648 29 18340196496774021800
21054139 6 13830132775987432868
21095123 145 9007050259022212376
21279426 13 18272091595561501258
21709351 56 18343300413709099319
21756936 100 17822012008690604307
21859007 373 18411408502341682784
22393880 68 17846486067814537279
23081809 10 16588299531898687898
23198884 109 18060415807805828741
23522609 53 15792027670650429630
23559900 14 17203323472492127834
2838139 119 18273495654614647257
4015057 19 16988282092006391698
4098825 35 17917994962974838047
445580 125 17822012025205646441
484985 159 14692285214658605839
4938544 92 8141820404066448375
5283173 99 18272371962104561304
531348 171 18273495680400496303
6126387 218 18410567359214711450
6328613 192 17821730502952634046
6431902 208 11672060857156689717
7226269 152 18040436577221702205
7495541 125 9511456732275064538

> <PUBCHEM_SHAPE_MULTIPOLES>
485.79
19.78
2.2
1.67
13.99
0.38
-0.09
9.12
-6.41
-3.35
0.02
-0.36
-0.09
2.2

> <PUBCHEM_SHAPE_SELFOVERLAP>
1021.865

> <PUBCHEM_SHAPE_VOLUME>
275.4

> <PUBCHEM_COORDINATE_TYPE>
2
5
10

$$$$
