9280
  -OEChem-02112514232D

 38 38  0     1  0  0  0  0  0999 V2000
    2.6718    0.0000    0.0000 Cl  0  0  0  0  0  0  0  0  0  0  0  0
    2.2690    4.1200    0.0000 O   0  0  0  0  0  0  0  0  0  0  0  0
    4.0010    4.1200    0.0000 O   0  0  0  0  0  0  0  0  0  0  0  0
    4.8671    5.6200    0.0000 N   0  0  0  0  0  0  0  0  0  0  0  0
    4.0010    6.1200    0.0000 C   0  0  3  0  0  0  0  0  0  0  0  0
    4.0010    7.1200    0.0000 C   0  0  0  0  0  0  0  0  0  0  0  0
    3.1350    5.6200    0.0000 C   0  0  3  0  0  0  0  0  0  0  0  0
    4.8671    7.6200    0.0000 C   0  0  0  0  0  0  0  0  0  0  0  0
    5.7331    7.1200    0.0000 C   0  0  0  0  0  0  0  0  0  0  0  0
    5.7331    6.1200    0.0000 C   0  0  0  0  0  0  0  0  0  0  0  0
    2.2690    6.1200    0.0000 C   0  0  0  0  0  0  0  0  0  0  0  0
    3.1350    4.6200    0.0000 C   0  0  0  0  0  0  0  0  0  0  0  0
    1.4030    5.6200    0.0000 C   0  0  0  0  0  0  0  0  0  0  0  0
    2.2690    7.1200    0.0000 C   0  0  0  0  0  0  0  0  0  0  0  0
    0.5369    6.1200    0.0000 C   0  0  0  0  0  0  0  0  0  0  0  0
    1.4030    7.6200    0.0000 C   0  0  0  0  0  0  0  0  0  0  0  0
    0.5369    7.1200    0.0000 C   0  0  0  0  0  0  0  0  0  0  0  0
    2.2690    3.1200    0.0000 C   0  0  0  0  0  0  0  0  0  0  0  0
    4.5380    6.4300    0.0000 H   0  0  0  0  0  0  0  0  0  0  0  0
    3.7890    7.7026    0.0000 H   0  0  0  0  0  0  0  0  0  0  0  0
    3.3905    7.0123    0.0000 H   0  0  0  0  0  0  0  0  0  0  0  0
    3.6720    5.3100    0.0000 H   0  0  0  0  0  0  0  0  0  0  0  0
    5.2656    8.0950    0.0000 H   0  0  0  0  0  0  0  0  0  0  0  0
    4.4685    8.0950    0.0000 H   0  0  0  0  0  0  0  0  0  0  0  0
    6.3437    7.0123    0.0000 H   0  0  0  0  0  0  0  0  0  0  0  0
    5.9451    7.7026    0.0000 H   0  0  0  0  0  0  0  0  0  0  0  0
    4.8671    5.0000    0.0000 H   0  0  0  0  0  0  0  0  0  0  0  0
    5.9451    5.5374    0.0000 H   0  0  0  0  0  0  0  0  0  0  0  0
    6.3437    6.2277    0.0000 H   0  0  0  0  0  0  0  0  0  0  0  0
    1.4030    5.0000    0.0000 H   0  0  0  0  0  0  0  0  0  0  0  0
    2.8059    7.4300    0.0000 H   0  0  0  0  0  0  0  0  0  0  0  0
    0.0000    5.8100    0.0000 H   0  0  0  0  0  0  0  0  0  0  0  0
    1.4030    8.2400    0.0000 H   0  0  0  0  0  0  0  0  0  0  0  0
    0.0000    7.4300    0.0000 H   0  0  0  0  0  0  0  0  0  0  0  0
    1.6490    3.1200    0.0000 H   0  0  0  0  0  0  0  0  0  0  0  0
    2.2690    2.5000    0.0000 H   0  0  0  0  0  0  0  0  0  0  0  0
    2.8890    3.1200    0.0000 H   0  0  0  0  0  0  0  0  0  0  0  0
    3.6718    0.0000    0.0000 H   0  0  0  0  0  0  0  0  0  0  0  0
  1 38  1  0  0  0  0
  2 12  1  0  0  0  0
  2 18  1  0  0  0  0
  3 12  2  0  0  0  0
  4  5  1  0  0  0  0
  4 10  1  0  0  0  0
  4 27  1  0  0  0  0
  5  6  1  0  0  0  0
  5  7  1  0  0  0  0
  5 19  1  0  0  0  0
  6  8  1  0  0  0  0
  6 20  1  0  0  0  0
  6 21  1  0  0  0  0
  7 11  1  0  0  0  0
  7 12  1  0  0  0  0
  7 22  1  0  0  0  0
  8  9  1  0  0  0  0
  8 23  1  0  0  0  0
  8 24  1  0  0  0  0
  9 10  1  0  0  0  0
  9 25  1  0  0  0  0
  9 26  1  0  0  0  0
 10 28  1  0  0  0  0
 10 29  1  0  0  0  0
 11 13  2  0  0  0  0
 11 14  1  0  0  0  0
 13 15  1  0  0  0  0
 13 30  1  0  0  0  0
 14 16  2  0  0  0  0
 14 31  1  0  0  0  0
 15 17  2  0  0  0  0
 15 32  1  0  0  0  0
 16 17  1  0  0  0  0
 16 33  1  0  0  0  0
 17 34  1  0  0  0  0
 18 35  1  0  0  0  0
 18 36  1  0  0  0  0
 18 37  1  0  0  0  0
M  END
> <PUBCHEM_COMPOUND_CID>
9280

> <PUBCHEM_COMPOUND_CANONICALIZED>
1

> <PUBCHEM_CACTVS_COMPLEXITY>
249

> <PUBCHEM_CACTVS_HBOND_ACCEPTOR>
3

> <PUBCHEM_CACTVS_HBOND_DONOR>
2

> <PUBCHEM_CACTVS_ROTATABLE_BOND>
4

> <PUBCHEM_CACTVS_SUBSKEYS>
AAADceByMAAEAAAAAAAAAAAAAAAAAAAAAAA8QAAAAAAAAAABAAAAHgAQAAAADSjBmAYyCILABACIAiDSCAACAAAgAAAIiIEIAIgIIDqAlRGEIAAm0AGIiAeYyOCOgAAAAAAAAAAAAAAAAAAAAAAAAAAAAA==

> <PUBCHEM_IUPAC_OPENEYE_NAME>
methyl 2-phenyl-2-(2-piperidyl)acetate;hydrochloride

> <PUBCHEM_IUPAC_CAS_NAME>
2-phenyl-2-(2-piperidinyl)acetic acid methyl ester;hydrochloride

> <PUBCHEM_IUPAC_NAME_MARKUP>
methyl 2-phenyl-2-piperidin-2-ylacetate;hydrochloride

> <PUBCHEM_IUPAC_NAME>
methyl 2-phenyl-2-piperidin-2-ylacetate;hydrochloride

> <PUBCHEM_IUPAC_SYSTEMATIC_NAME>
methyl 2-phenyl-2-piperidin-2-yl-ethanoate;hydrochloride

> <PUBCHEM_IUPAC_TRADITIONAL_NAME>
2-phenyl-2-(2-piperidyl)acetic acid methyl ester;hydrochloride

> <PUBCHEM_IUPAC_INCHI>
InChI=1S/C14H19NO2.ClH/c1-17-14(16)13(11-7-3-2-4-8-11)12-9-5-6-10-15-12;/h2-4,7-8,12-13,15H,5-6,9-10H2,1H3;1H

> <PUBCHEM_IUPAC_INCHIKEY>
JUMYIBMBTDDLNG-UHFFFAOYSA-N

> <PUBCHEM_EXACT_MASS>
269.1182566

> <PUBCHEM_MOLECULAR_FORMULA>
C14H20ClNO2

> <PUBCHEM_MOLECULAR_WEIGHT>
269.77

> <PUBCHEM_SMILES>
COC(=O)C(C1CCCCN1)C2=CC=CC=C2.Cl

> <PUBCHEM_OPENEYE_CAN_SMILES>
COC(=O)C(C1CCCCN1)C2=CC=CC=C2.Cl

> <PUBCHEM_OPENEYE_ISO_SMILES>
COC(=O)C(C1CCCCN1)C2=CC=CC=C2.Cl

> <PUBCHEM_CACTVS_TPSA>
38.3

> <PUBCHEM_MONOISOTOPIC_WEIGHT>
269.1182566

> <PUBCHEM_TOTAL_CHARGE>
0

> <PUBCHEM_HEAVY_ATOM_COUNT>
18

> <PUBCHEM_ATOM_DEF_STEREO_COUNT>
0

> <PUBCHEM_ATOM_UDEF_STEREO_COUNT>
2

> <PUBCHEM_BOND_DEF_STEREO_COUNT>
0

> <PUBCHEM_BOND_UDEF_STEREO_COUNT>
0

> <PUBCHEM_ISOTOPIC_ATOM_COUNT>
0

> <PUBCHEM_COMPONENT_COUNT>
2

> <PUBCHEM_CACTVS_TAUTO_COUNT>
-1

> <PUBCHEM_COORDINATE_TYPE>
1
5
255

> <PUBCHEM_BONDANNOTATIONS>
11  13  8
11  14  8
13  15  8
14  16  8
15  17  8
16  17  8
5  6  3
7  12  3

$$$$
